opendss_networks/LV11_216bus/lines.dss
new line.L_1 lineCode=uglv_240al_xlpe/nyl/pvc_ug_4w_bundled bus1=B1978 bus2=B447 length=0.0374280590729 units=km  phases=4
new line.L_11 lineCode=ugsc_16cu_xlpe/nyl/pvc_ug_4w_bundled bus1=B1731 bus2=B454 length=0.0316186544106 units=km phases=4
new line.L_14 lineCode=ugsc_16cu_xlpe/nyl/pvc_ug_4w_bundled bus1=B2221 bus2=B3379 length=0.0102424047546 units=km phases=4
new line.L_30 lineCode=generic/lv bus1=B2642 bus2=B3374 length=0.0301504982939 units=km phases=4
new line.L_116 lineCode=uglv_240al_xlpe/nyl/pvc_ug_4w_bundled bus1=B1917 bus2=B716 length=0.0358915807197 units=km phases=4
new line.L_128 lineCode=ugsc_16cu_xlpe/nyl/pvc_ug_4w_bundled bus1=B2907 bus2=B1245 length=0.0193491796414 units=km phases=4
new line.L_131 lineCode=generic/lv bus1=B2845 bus2=B1245 length=0.0788988127063 units=km phases=4
new line.L_148 lineCode=ugsc_16cu_xlpe/nyl/pvc_ug_4w_bundled bus1=B2915 bus2=B716 length=0.0146912287415 units=km phases=4
new line.L_165 lineCode=ugsc_16cu_xlpe/nyl/pvc_ug_4w_bundled bus1=B431 bus2=B344 length=0.00978336876088 units=km phases=4
new line.L_169 lineCode=ugsc_16cu_xlpe/nyl/pvc_ug_4w_bundled bus1=B2829 bus2=B1282 length=0.0102823026214 units=km phases=4
new line.L_171 lineCode=ugsc_16cu_xlpe/nyl/pvc_ug_4w_bundled bus1=B502 bus2=B2573 length=0.00973077630569 units=km phases=4
new line.L_235 lineCode=ugsc_16cu_xlpe/nyl/pvc_ug_4w_bundled bus1=B1029 bus2=B2929 length=0.0102559826419 units=km phases=4
new line.L_242 lineCode=ugsc_16cu_xlpe/nyl/pvc_ug_4w_bundled bus1=B3138 bus2=B1555 length=0.0148557926090 units=km phases=4
new line.L_283 lineCode=ugsc_16cu_xlpe/nyl/pvc_ug_4w_bundled bus1=B2159 bus2=B584 length=0.00939426274621 units=km phases=4
new line.L_292 lineCode=ugsc_16cu_xlpe/nyl/pvc_ug_4w_bundled bus1=B2088 bus2=B148 length=0.0176361330342 units=km phases=4
new line.L_319 lineCode=ugsc_16cu_xlpe/nyl/pvc_ug_4w_bundled bus1=B306 bus2=B902 length=0.00780854298219 units=km phases=4
new line.L_322 lineCode=ugsc_16cu_xlpe/nyl/pvc_ug_4w_bundled bus1=B469 bus2=B3220 length=0.0201940141636 units=km phases=4
new line.L_334 lineCode=ugsc_16cu_xlpe/nyl/pvc_ug_4w_bundled bus1=B2469 bus2=B802 length=0.00560709166300 units=km phases=4
new line.L_424 lineCode=ugsc_16cu_xlpe/nyl/pvc_ug_4w_bundled bus1=B3379 bus2=B1758 length=0.0123261211898 units=km phases=4
new line.L_434 lineCode=ugsc_16cu_xlpe/nyl/pvc_ug_4w_bundled bus1=B1078 bus2=B454 length=0.0266621690716 units=km phases=4
new line.L_437 lineCode=ugsc_16cu_xlpe/nyl/pvc_ug_4w_bundled bus1=B1664 bus2=B1001 length=0.0104776775807 units=km phases=4
new line.L_477 lineCode=ugsc_16cu_xlpe/nyl/pvc_ug_4w_bundled bus1=B1410 bus2=B716 length=0.00561501354684 units=km phases=4
new line.L_485 lineCode=ughv_400al_triplex_ug_4w_bundled bus1=B2010 bus2=B1177 length=0.000800000000000 units=km phases=4
new line.L_486 lineCode=ugsc_16cu_xlpe/nyl/pvc_ug_4w_bundled bus1=B831 bus2=B119 length=0.00594396477237 units=km phases=4
new line.L_507 lineCode=ugsc_16cu_xlpe/nyl/pvc_ug_4w_bundled bus1=B1467 bus2=B386 length=0.0144461719029 units=km phases=4
new line.L_550 lineCode=uglv_240al_xlpe/nyl/pvc_ug_4w_bundled bus1=B3220 bus2=B2319 length=0.0449057360898 units=km phases=4
new line.L_631 lineCode=ugsc_16cu_xlpe/nyl/pvc_ug_4w_bundled bus1=B3295 bus2=B3349 length=0.00982101218362 units=km phases=4
new line.L_646 lineCode=ugsc_16cu_xlpe/nyl/pvc_ug_4w_bundled bus1=B1399 bus2=B56 length=0.00554408195797 units=km phases=4
new line.L_648 lineCode=ughv_400al_triplex_ug_4w_bundled bus1=B3222 bus2=B1426 length=0.000206301915236 units=km phases=4
new line.L_693 lineCode=ugsc_16cu_xlpe/nyl/pvc_ug_4w_bundled bus1=B2425 bus2=B227 length=0.0483906305601 units=km phases=4
new line.L_720 lineCode=ughv_400al_triplex_ug_4w_bundled bus1=B2300 bus2=B1131 length=7.47735676854e-05 units=km phases=4
new line.L_743 lineCode=ugsc_16cu_xlpe/nyl/pvc_ug_4w_bundled bus1=B2937 bus2=B2573 length=0.00993143569609 units=km phases=4
new line.L_746 lineCode=ughv_400al_triplex_ug_4w_bundled bus1=B1041 bus2=B2214 length=0.000255748683198 units=km phases=4
new line.L_752 lineCode=ughv_400al_triplex_ug_4w_bundled bus1=B3222 bus2=B558 length=0.000320874025164 units=km phases=4
new line.L_753 lineCode=ugsc_16cu_xlpe/nyl/pvc_ug_4w_bundled bus1=B1126 bus2=B447 length=0.00922486284153 units=km phases=4
new line.L_818 lineCode=ugsc_16cu_xlpe/nyl/pvc_ug_4w_bundled bus1=B3194 bus2=B454 length=0.00815322238998 units=km phases=4
new line.L_822 lineCode=ugsc_16cu_xlpe/nyl/pvc_ug_4w_bundled bus1=B1793 bus2=B3370 length=0.00923916325145 units=km phases=4
new line.L_829 lineCode=ugsc_16cu_xlpe/nyl/pvc_ug_4w_bundled bus1=B2126 bus2=B227 length=0.0102024533831 units=km phases=4
new line.L_844 lineCode=ugsc_16cu_xlpe/nyl/pvc_ug_4w_bundled bus1=B2642 bus2=B2678 length=0.0226109755272 units=km phases=4
new line.L_854 lineCode=ugsc_16cu_xlpe/nyl/pvc_ug_4w_bundled bus1=B977 bus2=B2469 length=0.0103355087837 units=km phases=4
new line.L_881 lineCode=uglv_240al_xlpe/nyl/pvc_ug_4w_bundled bus1=B2642 bus2=B1399 length=0.0419663681777 units=km phases=4
new line.L_903 lineCode=ugsc_16cu_xlpe/nyl/pvc_ug_4w_bundled bus1=B3054 bus2=B3332 length=0.00558821822909 units=km phases=4
new line.L_904 lineCode=ugsc_16cu_xlpe/nyl/pvc_ug_4w_bundled bus1=B3370 bus2=B902 length=0.0393184206519 units=km phases=4
new line.L_980 lineCode=uglv_240al_xlpe/nyl/pvc_ug_4w_bundled bus1=B1109 bus2=B2220 length=0.0738619972005 units=km phases=4
new line.L_1007 lineCode=ugsc_16cu_xlpe/nyl/pvc_ug_4w_bundled bus1=B3074 bus2=B2220 length=0.0134695777948 units=km phases=4
new line.L_1055 lineCode=ugsc_16cu_xlpe/nyl/pvc_ug_4w_bundled bus1=B1758 bus2=B580 length=0.0384336724748 units=km phases=4
new line.L_1120 lineCode=ugsc_16cu_xlpe/nyl/pvc_ug_4w_bundled bus1=B3059 bus2=B2250 length=0.0170402221589 units=km phases=4
new line.L_1131 lineCode=ugsc_16cu_xlpe/nyl/pvc_ug_4w_bundled bus1=B1076 bus2=B2250 length=0.0161078243684 units=km phases=4
new line.L_1160 lineCode=uglv_240al_xlpe/nyl/pvc_ug_4w_bundled bus1=B1495 bus2=B1344 length=0.0418033834295 units=km phases=4
new line.L_1194 lineCode=generic/lv bus1=B2280 bus2=B3068 length=0.0156452391495 units=km phases=4
new line.L_1217 lineCode=ugsc_16cu_xlpe/nyl/pvc_ug_4w_bundled bus1=B735 bus2=B1984 length=0.00991163432697 units=km phases=4
new line.L_1229 lineCode=ugsc_16cu_xlpe/nyl/pvc_ug_4w_bundled bus1=B910 bus2=B1399 length=0.0102785907078 units=km phases=4
new line.L_1238 lineCode=ugsc_16cu_xlpe/nyl/pvc_ug_4w_bundled bus1=B2204 bus2=B47 length=0.0160050803928 units=km phases=4
new line.L_1275 lineCode=ugsc_16cu_xlpe/nyl/pvc_ug_4w_bundled bus1=B3279 bus2=B2127 length=0.0102788553928 units=km phases=4
new line.L_1281 lineCode=ugsc_16cu_xlpe/nyl/pvc_ug_4w_bundled bus1=B41 bus2=B902 length=0.00602215930368 units=km phases=4
new line.L_1298 lineCode=ugsc_16cu_xlpe/nyl/pvc_ug_4w_bundled bus1=B1943 bus2=B1245 length=0.00558938230523 units=km phases=4
new line.L_1325 lineCode=ugsc_16cu_xlpe/nyl/pvc_ug_4w_bundled bus1=B2602 bus2=B2524 length=0.0100263635274 units=km phases=4
new line.L_1337 lineCode=ugsc_16cu_xlpe/nyl/pvc_ug_4w_bundled bus1=B2931 bus2=B851 length=0.0101514799145 units=km phases=4
new line.L_1346 lineCode=ugsc_16cu_xlpe/nyl/pvc_ug_4w_bundled bus1=B1978 bus2=B1603 length=0.0195101599418 units=km phases=4
new line.L_1376 lineCode=ugsc_16cu_xlpe/nyl/pvc_ug_4w_bundled bus1=B2667 bus2=B2846 length=0.0104483587986 units=km phases=4
new line.L_1377 lineCode=ugsc_16cu_xlpe/nyl/pvc_ug_4w_bundled bus1=B1340 bus2=B891 length=0.00354696189744 units=km phases=4
new line.L_1431 lineCode=uglv_240al_xlpe/nyl/pvc_ug_4w_bundled bus1=B891 bus2=B1716 length=0.0355260419815 units=km phases=4
new line.L_1458 lineCode=ugsc_16cu_xlpe/nyl/pvc_ug_4w_bundled bus1=B851 bus2=B585 length=0.0122406837458 units=km phases=4
new line.L_1473 lineCode=ugsc_16cu_xlpe/nyl/pvc_ug_4w_bundled bus1=B675 bus2=B1555 length=0.00517246781482 units=km phases=4
new line.L_1488 lineCode=uglv_240al_xlpe/nyl/pvc_ug_4w_bundled bus1=B3220 bus2=B1758 length=0.0263468009386 units=km phases=4
new line.L_1517 lineCode=ugsc_16cu_xlpe/nyl/pvc_ug_4w_bundled bus1=B2235 bus2=B580 length=0.0100859187354 units=km phases=4
new line.L_1527 lineCode=ugsc_16cu_xlpe/nyl/pvc_ug_4w_bundled bus1=B2319 bus2=B2975 length=0.0122189088299 units=km phases=4
new line.L_1547 lineCode=ugsc_16cu_xlpe/nyl/pvc_ug_4w_bundled bus1=B3380 bus2=B386 length=0.00548265892714 units=km phases=4
new line.L_1564 lineCode=uglv_240al_xlpe/nyl/pvc_ug_4w_bundled bus1=B2220 bus2=B3054 length=0.0548039655214 units=km phases=4
new line.L_1587 lineCode=ugsc_16cu_xlpe/nyl/pvc_ug_4w_bundled bus1=B3148 bus2=B2845 length=0.0286655880299 units=km phases=4
new line.L_1590 lineCode=ughv_400al_triplex_ug_4w_bundled bus1=B3222 bus2=B782 length=0.000328464236668 units=km phases=4
new line.L_1601 lineCode=ugsc_16cu_xlpe/nyl/pvc_ug_4w_bundled bus1=B1919 bus2=B3072 length=0.0101324674081 units=km phases=4
new line.L_1602 lineCode=ugsc_16cu_xlpe/nyl/pvc_ug_4w_bundled bus1=B1910 bus2=B3064 length=0.00549161055098 units=km phases=4
new line.L_1626 lineCode=ugsc_16cu_xlpe/nyl/pvc_ug_4w_bundled bus1=B1074 bus2=B2496 length=0.0100841472141 units=km phases=4
new line.L_1631 lineCode=ugsc_16cu_xlpe/nyl/pvc_ug_4w_bundled bus1=B900 bus2=B2678 length=0.0100074602875 units=km phases=4
new line.L_1637 lineCode=ugsc_16cu_xlpe/nyl/pvc_ug_4w_bundled bus1=B1708 bus2=B2395 length=0.00990380300777 units=km phases=4
new line.L_1658 lineCode=ugsc_16cu_xlpe/nyl/pvc_ug_4w_bundled bus1=B588 bus2=B454 length=0.0300800153791 units=km phases=4
new line.L_1675 lineCode=ugsc_16cu_xlpe/nyl/pvc_ug_4w_bundled bus1=B3072 bus2=B1001 length=0.0122254828442 units=km phases=4
new line.L_1701 lineCode=ugsc_16cu_xlpe/nyl/pvc_ug_4w_bundled bus1=B1888 bus2=B2395 length=0.0887663318957 units=km phases=4
new line.L_1727 lineCode=generic/lv bus1=B148 bus2=B2875 length=0.0284939520445 units=km phases=4
new line.L_1739 lineCode=uglv_240al_xlpe/nyl/pvc_ug_4w_bundled bus1=B1758 bus2=B2642 length=0.0571789403604 units=km phases=4
new line.L_1748 lineCode=ugsc_16cu_xlpe/nyl/pvc_ug_4w_bundled bus1=B901 bus2=B3220 length=0.0151885091720 units=km phases=4
new line.L_1810 lineCode=ugsc_16cu_xlpe/nyl/pvc_ug_4w_bundled bus1=B685 bus2=B1910 length=0.0208035921652 units=km phases=4
new line.L_1827 lineCode=generic/lv bus1=B386 bus2=B2395 length=0.0249422297764 units=km phases=4
new line.L_1871 lineCode=ugsc_16cu_xlpe/nyl/pvc_ug_4w_bundled bus1=B2265 bus2=B386 length=0.0100357366100 units=km phases=4
new line.L_1877 lineCode=uglv_240al_xlpe/nyl/pvc_ug_4w_bundled bus1=B1399 bus2=B3096 length=0.0388813078875 units=km phases=4
new line.L_1978 lineCode=ugsc_16cu_xlpe/nyl/pvc_ug_4w_bundled bus1=B1777 bus2=B233 length=0.00987827614666 units=km phases=4
new line.L_1979 lineCode=ugsc_16cu_xlpe/nyl/pvc_ug_4w_bundled bus1=B891 bus2=B2366 length=0.0185837520641 units=km phases=4
new line.L_1981 lineCode=ugsc_16cu_xlpe/nyl/pvc_ug_4w_bundled bus1=B1822 bus2=B2319 length=0.0101061801391 units=km phases=4
new line.L_1989 lineCode=ugsc_16cu_xlpe/nyl/pvc_ug_4w_bundled bus1=B1555 bus2=B454 length=0.0210779445726 units=km phases=4
new line.L_2009 lineCode=ugsc_16cu_xlpe/nyl/pvc_ug_4w_bundled bus1=B882 bus2=B148 length=0.0106684277759 units=km phases=4
new line.L_2027 lineCode=ugsc_16cu_xlpe/nyl/pvc_ug_4w_bundled bus1=B2102 bus2=B454 length=0.0329721606685 units=km phases=4
new line.L_2028 lineCode=uglv_240al_xlpe/nyl/pvc_ug_4w_bundled bus1=B447 bus2=B454 length=0.0494745472053 units=km phases=4
new line.L_2040 lineCode=ugsc_16cu_xlpe/nyl/pvc_ug_4w_bundled bus1=B2960 bus2=B1716 length=0.00902781890086 units=km phases=4
new line.L_2051 lineCode=ugsc_16cu_xlpe/nyl/pvc_ug_4w_bundled bus1=B1064 bus2=B1001 length=0.0101249448478 units=km phases=4
new line.L_2063 lineCode=ugsc_16cu_xlpe/nyl/pvc_ug_4w_bundled bus1=B430 bus2=B584 length=0.0107412133745 units=km phases=4
new line.L_2077 lineCode=ugsc_16cu_xlpe/nyl/pvc_ug_4w_bundled bus1=B572 bus2=B1716 length=0.00990740976706 units=km phases=4
new line.L_2084 lineCode=ugsc_16cu_xlpe/nyl/pvc_ug_4w_bundled bus1=B3265 bus2=B584 length=0.00558151922172 units=km phases=4
new line.L_2116 lineCode=ugsc_16cu_xlpe/nyl/pvc_ug_4w_bundled bus1=B2419 bus2=B2250 length=0.0219036459688 units=km phases=4
new line.L_2183 lineCode=ugsc_16cu_xlpe/nyl/pvc_ug_4w_bundled bus1=B838 bus2=B3072 length=0.0102698540728 units=km phases=4
new line.L_2202 lineCode=ugsc_16cu_xlpe/nyl/pvc_ug_4w_bundled bus1=B2689 bus2=B1978 length=0.00989219903939 units=km phases=4
new line.L_2203 lineCode=ugsc_16cu_xlpe/nyl/pvc_ug_4w_bundled bus1=B447 bus2=B1488 length=0.0159964942426 units=km phases=4
new line.L_2251 lineCode=ugsc_16cu_xlpe/nyl/pvc_ug_4w_bundled bus1=B2498 bus2=B1984 length=0.0245255644149 units=km phases=4
new line.L_2252 lineCode=ugsc_16cu_xlpe/nyl/pvc_ug_4w_bundled bus1=B218 bus2=B447 length=0.00975788653562 units=km phases=4
new line.L_2298 lineCode=generic/lv bus1=B3370 bus2=B2845 length=0.0150941156334 units=km phases=4
new line.L_2328 lineCode=ugsc_16cu_xlpe/nyl/pvc_ug_4w_bundled bus1=B1468 bus2=B2127 length=0.0192359307705 units=km phases=4
new line.L_2348 lineCode=ughv_400al_triplex_ug_4w_bundled bus1=B2214 bus2=B210 length=0.000244629175463 units=km phases=4
new line.L_2390 lineCode=ugsc_16cu_xlpe/nyl/pvc_ug_4w_bundled bus1=B115 bus2=B2220 length=0.0107836348713 units=km phases=4
new line.L_2394 lineCode=ugsc_16cu_xlpe/nyl/pvc_ug_4w_bundled bus1=B2832 bus2=B344 length=0.00550100039350 units=km phases=4
new line.L_2395 lineCode=ughv_400al_triplex_ug_4w_bundled bus1=B152 bus2=B3127 length=7.47735676854e-05 units=km phases=4
new line.L_2419 lineCode=ugsc_16cu_xlpe/nyl/pvc_ug_4w_bundled bus1=B3017 bus2=B3379 length=0.00995592258802 units=km phases=4
new line.L_2451 lineCode=ugsc_16cu_xlpe/nyl/pvc_ug_4w_bundled bus1=B1167 bus2=B2127 length=0.00525721305473 units=km phases=4
new line.L_2511 lineCode=ugsc_16cu_xlpe/nyl/pvc_ug_4w_bundled bus1=B1750 bus2=B43 length=0.00529916580618 units=km phases=4
new line.L_2513 lineCode=ugsc_16cu_xlpe/nyl/pvc_ug_4w_bundled bus1=B1574 bus2=B43 length=0.0102465389461 units=km phases=4
new line.L_2546 lineCode=ugsc_16cu_xlpe/nyl/pvc_ug_4w_bundled bus1=B2229 bus2=B2678 length=0.00769025116818 units=km phases=4
new line.L_2555 lineCode=ugsc_16cu_xlpe/nyl/pvc_ug_4w_bundled bus1=B2035 bus2=B3054 length=0.0105529299133 units=km phases=4
new line.L_2588 lineCode=ugsc_16cu_xlpe/nyl/pvc_ug_4w_bundled bus1=B2356 bus2=B580 length=0.0101137389346 units=km phases=4
new line.L_2656 lineCode=uglv_240al_xlpe/nyl/pvc_ug_4w_bundled bus1=B2498 bus2=B2496 length=0.0374355533478 units=km phases=4
new line.L_2684 lineCode=ugsc_16cu_xlpe/nyl/pvc_ug_4w_bundled bus1=B3072 bus2=B2141 length=0.0126629817889 units=km phases=4
new line.L_2707 lineCode=ugsc_16cu_xlpe/nyl/pvc_ug_4w_bundled bus1=B1056 bus2=B119 length=0.0126080876540 units=km phases=4
new line.L_2772 lineCode=ugsc_16cu_xlpe/nyl/pvc_ug_4w_bundled bus1=B227 bus2=B1282 length=0.0122647866018 units=km phases=4
new line.L_2782 lineCode=uglv_240al_xlpe/nyl/pvc_ug_4w_bundled bus1=B2121 bus2=B1495 length=0.0281795169689 units=km phases=4
new line.L_2854 lineCode=uglv_240al_xlpe/nyl/pvc_ug_4w_bundled bus1=B2319 bus2=B3072 length=0.0384088858476 units=km phases=4
new line.L_2862 lineCode=ugsc_16cu_xlpe/nyl/pvc_ug_4w_bundled bus1=B3379 bus2=B134 length=0.00560121006636 units=km phases=4
new line.L_2866 lineCode=ugsc_16cu_xlpe/nyl/pvc_ug_4w_bundled bus1=B148 bus2=B47 length=0.0150499780574 units=km phases=4
new line.L_2894 lineCode=ugsc_16cu_xlpe/nyl/pvc_ug_4w_bundled bus1=B2319 bus2=B1243 length=0.00550507025756 units=km phases=4
new line.L_2907 lineCode=uglv_240al_xlpe/nyl/pvc_ug_4w_bundled bus1=B2243 bus2=B3370 length=0.0436637484012 units=km phases=4
new line.L_2987 lineCode=ugsc_16cu_xlpe/nyl/pvc_ug_4w_bundled bus1=B1918 bus2=B3054 length=0.0105860972047 units=km phases=4
new line.L_2997 lineCode=ugsc_16cu_xlpe/nyl/pvc_ug_4w_bundled bus1=B2846 bus2=B344 length=0.0161686283070 units=km phases=4
new line.L_3018 lineCode=ugsc_16cu_xlpe/nyl/pvc_ug_4w_bundled bus1=B1107 bus2=B3374 length=0.0191424505613 units=km phases=4
new line.L_3028 lineCode=ugsc_16cu_xlpe/nyl/pvc_ug_4w_bundled bus1=B2916 bus2=B1177 length=0.00949882759393 units=km phases=4
new line.L_3039 lineCode=uglv_240al_xlpe/nyl/pvc_ug_4w_bundled bus1=B2280 bus2=B344 length=0.0375240621778 units=km phases=4
new line.L_3055 lineCode=ugsc_16cu_xlpe/nyl/pvc_ug_4w_bundled bus1=B1984 bus2=B758 length=0.00548782186098 units=km phases=4
new line.L_3093 lineCode=ugsc_16cu_xlpe/nyl/pvc_ug_4w_bundled bus1=B1541 bus2=B902 length=0.0126326520147 units=km phases=4
new line.L_3131 lineCode=ugsc_16cu_xlpe/nyl/pvc_ug_4w_bundled bus1=B3120 bus2=B119 length=0.0310602319157 units=km phases=4
new line.L_3133 lineCode=ugsc_16cu_xlpe/nyl/pvc_ug_4w_bundled bus1=B1680 bus2=B1758 length=0.0146983419637 units=km phases=4
new line.L_3134 lineCode=ugsc_16cu_xlpe/nyl/pvc_ug_4w_bundled bus1=B2423 bus2=B3349 length=0.0100634672091 units=km phases=4
new line.L_3138 lineCode=ugsc_16cu_xlpe/nyl/pvc_ug_4w_bundled bus1=B2076 bus2=B891 length=0.00897691671396 units=km phases=4
new line.L_3141 lineCode=uglv_240al_xlpe/nyl/pvc_ug_4w_bundled bus1=B454 bus2=B2127 length=0.0472405158702 units=km phases=4
new line.L_3148 lineCode=ugsc_16cu_xlpe/nyl/pvc_ug_4w_bundled bus1=B569 bus2=B2975 length=0.0107040186298 units=km phases=4
new line.L_3204 lineCode=uglv_240al_xlpe/nyl/pvc_ug_4w_bundled bus1=B1910 bus2=B2280 length=0.0212133133752 units=km phases=4
new line.L_3229 lineCode=ugsc_16cu_xlpe/nyl/pvc_ug_4w_bundled bus1=B93 bus2=B1978 length=0.00964289714317 units=km phases=4
new line.L_3246 lineCode=uglv_240al_xlpe/nyl/pvc_ug_4w_bundled bus1=B344 bus2=B233 length=0.0374648909661 units=km phases=4
new line.L_3336 lineCode=ughv_400al_triplex_ug_4w_bundled bus1=B1041 bus2=B367 length=0.000245763437155 units=km phases=4
new line.L_3364 lineCode=ugsc_16cu_xlpe/nyl/pvc_ug_4w_bundled bus1=B135 bus2=B2845 length=0.00556093551541 units=km phases=4
new line.L_3413 lineCode=ugsc_16cu_xlpe/nyl/pvc_ug_4w_bundled bus1=B851 bus2=B1217 length=0.0206359903427 units=km phases=4
new line.L_3436 lineCode=ugsc_16cu_xlpe/nyl/pvc_ug_4w_bundled bus1=B3105 bus2=B2220 length=0.0240097738922 units=km phases=4
new line.L_3444 lineCode=uglv_240al_xlpe/nyl/pvc_ug_4w_bundled bus1=B3370 bus2=B1910 length=0.0591814277985 units=km phases=4
new line.L_3463 lineCode=ugsc_16cu_xlpe/nyl/pvc_ug_4w_bundled bus1=B477 bus2=B1984 length=0.0100875109222 units=km phases=4
new line.L_3468 lineCode=uglv_240al_xlpe/nyl/pvc_ug_4w_bundled bus1=B2127 bus2=B891 length=0.0110669704179 units=km phases=4
new line.L_3473 lineCode=ugsc_16cu_xlpe/nyl/pvc_ug_4w_bundled bus1=B91 bus2=B1282 length=0.0103155230710 units=km phases=4
new line.L_3477 lineCode=ugsc_16cu_xlpe/nyl/pvc_ug_4w_bundled bus1=B1814 bus2=B716 length=0.0100683747374 units=km phases=4
new line.L_3486 lineCode=ugsc_16cu_xlpe/nyl/pvc_ug_4w_bundled bus1=B1447 bus2=B43 length=0.0102118339090 units=km phases=4
new line.L_3492 lineCode=ugsc_16cu_xlpe/nyl/pvc_ug_4w_bundled bus1=B2642 bus2=B268 length=0.00595979451524 units=km phases=4
new line.L_3522 lineCode=ugsc_16cu_xlpe/nyl/pvc_ug_4w_bundled bus1=B1815 bus2=B3068 length=0.0149612927878 units=km phases=4
new line.L_3545 lineCode=ugsc_16cu_xlpe/nyl/pvc_ug_4w_bundled bus1=B3060 bus2=B233 length=0.00976480830006 units=km phases=4
new line.L_3551 lineCode=uglv_240al_xlpe/nyl/pvc_ug_4w_bundled bus1=B584 bus2=B386 length=0.0381802985396 units=km phases=4
new line.L_3576 lineCode=uglv_240al_xlpe/nyl/pvc_ug_4w_bundled bus1=B3054 bus2=B3220 length=0.0187708699216 units=km phases=4
new line.L_3610 lineCode=ugsc_16cu_xlpe/nyl/pvc_ug_4w_bundled bus1=B584 bus2=B2573 length=0.0253822101547 units=km phases=4
new line.L_3617 lineCode=ugsc_16cu_xlpe/nyl/pvc_ug_4w_bundled bus1=B2186 bus2=B3054 length=0.0388985053964 units=km phases=4
new line.L_3622 lineCode=ugsc_16cu_xlpe/nyl/pvc_ug_4w_bundled bus1=B1978 bus2=B2929 length=0.0177256181615 units=km phases=4
new line.L_3624 lineCode=ugsc_16cu_xlpe/nyl/pvc_ug_4w_bundled bus1=B3256 bus2=B227 length=0.0208550357266 units=km phases=4
new line.L_3651 lineCode=ugsc_16cu_xlpe/nyl/pvc_ug_4w_bundled bus1=B1548 bus2=B2846 length=0.0100102304525 units=km phases=4
new line.L_3666 lineCode=uglv_240al_xlpe/nyl/pvc_ug_4w_bundled bus1=B233 bus2=B1978 length=0.0375833674482 units=km phases=4
new line.L_3710 lineCode=ugsc_16cu_xlpe/nyl/pvc_ug_4w_bundled bus1=B1187 bus2=B1041 length=0.0665795884418 units=km phases=4
new line.L_3749 lineCode=uglv_240al_xlpe/nyl/pvc_ug_4w_bundled bus1=B1716 bus2=B1177 length=0.0362380692751 units=km phases=4
new line.L_3764 lineCode=generic/lv bus1=B2127 bus2=B3349 length=0.0226238113474 units=km phases=4
new line.L_3800 lineCode=ugsc_16cu_xlpe/nyl/pvc_ug_4w_bundled bus1=B2661 bus2=B1716 length=0.0264883627302 units=km phases=4
new line.L_3803 lineCode=ugsc_16cu_xlpe/nyl/pvc_ug_4w_bundled bus1=B2681 bus2=B1758 length=0.0143214478078 units=km phases=4
new line.L_3838 lineCode=ugsc_16cu_xlpe/nyl/pvc_ug_4w_bundled bus1=B2469 bus2=B1177 length=0.0228751070165 units=km phases=4
new line.L_3842 lineCode=uglv_240al_xlpe/nyl/pvc_ug_4w_bundled bus1=B3072 bus2=B851 length=0.0387112556216 units=km phases=4
new line.L_3865 lineCode=ugsc_16cu_xlpe/nyl/pvc_ug_4w_bundled bus1=B1443 bus2=B2469 length=0.00768681118750 units=km phases=4
new line.L_3870 lineCode=uglv_240al_xlpe/nyl/pvc_ug_4w_bundled bus1=B2875 bus2=B3042 length=0.0479743118383 units=km phases=4
new line.L_3882 lineCode=ugsc_16cu_xlpe/nyl/pvc_ug_4w_bundled bus1=B3032 bus2=B585 length=0.0102785858590 units=km phases=4
new line.L_3924 lineCode=ughv_400al_triplex_ug_4w_bundled bus1=B3055 bus2=B1052 length=7.47735676854e-05 units=km phases=4
new line.L_3946 lineCode=ugsc_16cu_xlpe/nyl/pvc_ug_4w_bundled bus1=B1292 bus2=B2250 length=0.00545385306197 units=km phases=4
new line.L_3970 lineCode=generic/lv bus1=B716 bus2=B119 length=0.0181078769199 units=km phases=4
new line.L_3976 lineCode=ugsc_16cu_xlpe/nyl/pvc_ug_4w_bundled bus1=B2524 bus2=B2496 length=0.0247230001405 units=km phases=4
new line.L_3983 lineCode=ugsc_16cu_xlpe/nyl/pvc_ug_4w_bundled bus1=B1577 bus2=B2975 length=0.00989789497831 units=km phases=4
new line.L_4017 lineCode=ugsc_16cu_xlpe/nyl/pvc_ug_4w_bundled bus1=B2472 bus2=B2319 length=0.0103176307922 units=km phases=4
new line.L_4038 lineCode=uglv_240al_xlpe/nyl/pvc_ug_4w_bundled bus1=B2496 bus2=B584 length=0.0368525374416 units=km phases=4
new line.L_4075 lineCode=ugsc_16cu_xlpe/nyl/pvc_ug_4w_bundled bus1=B2896 bus2=B2280 length=0.00985407892725 units=km phases=4
new line.L_4093 lineCode=uglv_240al_xlpe/nyl/pvc_ug_4w_bundled bus1=B851 bus2=B227 length=0.0386005404678 units=km phases=4
new line.L_4098 lineCode=uglv_240al_xlpe/nyl/pvc_ug_4w_bundled bus1=B447 bus2=B148 length=0.0778897371469 units=km phases=4
new line.L_4100 lineCode=ugsc_16cu_xlpe/nyl/pvc_ug_4w_bundled bus1=B233 bus2=B43 length=0.0170358377737 units=km phases=4
new line.L_4108 lineCode=uglv_240al_xlpe/nyl/pvc_ug_4w_bundled bus1=B1495 bus2=B1917 length=0.0262261640190 units=km phases=4
new line.L_4177 lineCode=ugsc_16cu_xlpe/nyl/pvc_ug_4w_bundled bus1=B596 bus2=B2498 length=0.0100752884903 units=km phases=4
new line.L_4267 lineCode=ugsc_16cu_xlpe/nyl/pvc_ug_4w_bundled bus1=B3317 bus2=B585 length=0.0103103021938 units=km phases=4
new line.L_4364 lineCode=ugsc_16cu_xlpe/nyl/pvc_ug_4w_bundled bus1=B322 bus2=B2875 length=0.0133103463439 units=km phases=4
new line.L_4395 lineCode=ugsc_16cu_xlpe/nyl/pvc_ug_4w_bundled bus1=B1712 bus2=B47 length=0.0108298466489 units=km phases=4
new line.L_4401 lineCode=ugsc_16cu_xlpe/nyl/pvc_ug_4w_bundled bus1=B3045 bus2=B2498 length=0.00997395803681 units=km phases=4
new line.L_4420 lineCode=ugsc_16cu_xlpe/nyl/pvc_ug_4w_bundled bus1=B1079 bus2=B1917 length=0.00920360799913 units=km phases=4
new line.L_4442 lineCode=ugsc_16cu_xlpe/nyl/pvc_ug_4w_bundled bus1=B352 bus2=B2929 length=0.0102081767267 units=km phases=4
new line.L_4445 lineCode=ugsc_16cu_xlpe/nyl/pvc_ug_4w_bundled bus1=B1717 bus2=B716 length=0.00704562812283 units=km phases=4
new line.L_4471 lineCode=ugsc_16cu_xlpe/nyl/pvc_ug_4w_bundled bus1=B1353 bus2=B1399 length=0.0103197283818 units=km phases=4
new line.L_4480 lineCode=ughv_400al_triplex_ug_4w_bundled bus1=B3197 bus2=B3222 length=0.000353796142487 units=km phases=4
new line.L_4499 lineCode=uglv_240al_xlpe/nyl/pvc_ug_4w_bundled bus1=B716 bus2=B2498 length=0.0369406270942 units=km phases=4
new line.L_4506 lineCode=ugsc_16cu_xlpe/nyl/pvc_ug_4w_bundled bus1=B2845 bus2=B1960 length=0.0353649719505 units=km phases=4
new line.L_4516 lineCode=ugsc_16cu_xlpe/nyl/pvc_ug_4w_bundled bus1=B148 bus2=B3207 length=0.00580257772513 units=km phases=4
new line.L_4530 lineCode=ugsc_16cu_xlpe/nyl/pvc_ug_4w_bundled bus1=B126 bus2=B2220 length=0.0191927228372 units=km phases=4
new line.L_4531 lineCode=ugsc_16cu_xlpe/nyl/pvc_ug_4w_bundled bus1=B68 bus2=B344 length=0.00998366986796 units=km phases=4
new line.L_4622 lineCode=ugsc_16cu_xlpe/nyl/pvc_ug_4w_bundled bus1=B753 bus2=B2524 length=0.00978725383955 units=km phases=4
new line.L_4638 lineCode=ugsc_16cu_xlpe/nyl/pvc_ug_4w_bundled bus1=B1612 bus2=B2496 length=0.00997948480098 units=km phases=4
new line.L_4639 lineCode=ugsc_16cu_xlpe/nyl/pvc_ug_4w_bundled bus1=B2692 bus2=B3068 length=0.0102465274719 units=km phases=4
new line.L_4650 lineCode=ugsc_16cu_xlpe/nyl/pvc_ug_4w_bundled bus1=B158 bus2=B2642 length=0.0127658446730 units=km phases=4
new line.L_4670 lineCode=generic/lv bus1=B386 bus2=B2250 length=0.0441585701388 units=km phases=4
new line.L_4683 lineCode=ugsc_16cu_xlpe/nyl/pvc_ug_4w_bundled bus1=B898 bus2=B1910 length=0.0113036297332 units=km phases=4
